[Format]      =  4.0
[Frequency]   =  0
[Precision]   =  1e-008
[MinAngle]    =  30
[Depth]       =  70
[LengthUnits] =  millimeters
[ProblemType] =  planar
[Coordinates] =  cartesian
[Comment]     =  "Add comments here."
[PointProps]   = 0
[BdryProps]   = 1
  <BeginBdry>
    <BdryName> = "New Boundary"
    <BdryType> = 0
    <A_0> = 0
    <A_1> = 0
    <A_2> = 0
    <Phi> = 90
    <c0> = 0
    <c0i> = 0
    <c1> = 0
    <c1i> = 0
    <Mu_ssd> = 0
    <Sigma_ssd> = 0
  <EndBdry>
[BlockProps]  = 3
  <BeginBlock>
    <BlockName> = "Air"
    <Mu_x> = 1
    <Mu_y> = 1
    <H_c> = 0
    <H_cAngle> = 0
    <J_re> = 0
    <J_im> = 0
    <Sigma> = 0
    <d_lam> = 0
    <Phi_h> = 0
    <Phi_hx> = 0
    <Phi_hy> = 0
    <LamType> = 0
    <LamFill> = 1
    <NStrands> = 0
    <WireD> = 0
    <BHPoints> = 0
  <EndBlock>
  <BeginBlock>
    <BlockName> = "Pure Iron"
    <Mu_x> = 14872
    <Mu_y> = 14872
    <H_c> = 0
    <H_cAngle> = 0
    <J_re> = 0
    <J_im> = 0
    <Sigma> = 10.44
    <d_lam> = 0
    <Phi_h> = 0
    <Phi_hx> = 0
    <Phi_hy> = 0
    <LamType> = 0
    <LamFill> = 1
    <NStrands> = 0
    <WireD> = 0
    <BHPoints> = 21
      0	0
      0.22706499999999999	13.898400000000001
      0.45412999999999998	27.796700000000001
      0.68119499999999999	42.397399999999998
      0.90825999999999996	61.415700000000001
      1.13533	82.382400000000004
      1.36239	144.66900000000001
      1.58935	897.75999999999999
      1.81236	4581.7399999999998
      2.01004	17736.200000000001
      2.1331600000000002	41339.300000000003
      2.1999900000000001	68321.800000000003
      2.2547899999999998	95685.5
      2.2999299999999998	123355
      2.3425099999999999	151083
      2.3787600000000002	178954
      2.4150100000000001	206825
      2.45126	234696
      2.4874999999999998	262568
      2.5237500000000002	290439
      2.5600000000000001	318310
  <EndBlock>
  <BeginBlock>
    <BlockName> = "Copper"
    <Mu_x> = 1
    <Mu_y> = 1
    <H_c> = 0
    <H_cAngle> = 0
    <J_re> = 0
    <J_im> = 0
    <Sigma> = 58
    <d_lam> = 0
    <Phi_h> = 0
    <Phi_hx> = 0
    <Phi_hy> = 0
    <LamType> = 0
    <LamFill> = 1
    <NStrands> = 0
    <WireD> = 0
    <BHPoints> = 0
  <EndBlock>
[CircuitProps]  = 2
  <BeginCircuit>
    <CircuitName> = "stator"
    <TotalAmps_re> = 5
    <TotalAmps_im> = 0
    <CircuitType> = 1
  <EndCircuit>
  <BeginCircuit>
    <CircuitName> = "rotor"
    <TotalAmps_re> = 1.25
    <TotalAmps_im> = 0
    <CircuitType> = 1
  <EndCircuit>
[NumPoints] = 197
0	0	0	0
30	0	0	0
-30	0	0	0
70	3	0	0
70	-3	0	0
60	3	0	0
60	-3	0	0
66.838350704927208	21.015110636043659	0	0
57.179092442036541	18.426920185018449	0	0
58.732006712651661	12.631365227284039	0	0
68.391264975542342	15.219555678309248	0	0
59.121778264910709	37.598076211353309	0	0
50.46152422706632	32.598076211353316	0	0
53.46152422706632	27.40192378864668	0	0
62.121778264910709	32.401923788646677	0	0
47.376154339498683	51.618795026617967	0	0
40.305086527633208	44.547727214752491	0	0
44.547727214752499	40.3050865276332	0	0
51.618795026617974	47.376154339498676	0	0
32.401923788646691	62.121778264910702	0	0
27.401923788646691	53.461524227066313	0	0
32.598076211353323	50.461524227066313	0	0
37.598076211353323	59.121778264910702	0	0
15.219555678309248	68.391264975542342	0	0
12.631365227284039	58.732006712651661	0	0
18.426920185018449	57.179092442036541	0	0
21.015110636043659	66.838350704927208	0	0
-2.9999999999999956	70	0	0
-2.9999999999999964	60	0	0
3.0000000000000036	60	0	0
3.0000000000000044	70	0	0
-21.015110636043666	66.838350704927208	0	0
-18.426920185018457	57.179092442036541	0	0
-12.631365227284046	58.732006712651661	0	0
-15.219555678309256	68.391264975542342	0	0
-37.598076211353302	59.121778264910709	0	0
-32.598076211353302	50.46152422706632	0	0
-27.40192378864667	53.46152422706632	0	0
-32.40192378864667	62.121778264910709	0	0
-51.618795026617967	47.376154339498683	0	0
-44.547727214752491	40.305086527633208	0	0
-40.3050865276332	44.547727214752499	0	0
-47.376154339498676	51.618795026617974	0	0
-62.121778264910709	32.401923788646677	0	0
-53.46152422706632	27.40192378864668	0	0
-50.46152422706632	32.598076211353316	0	0
-59.121778264910709	37.598076211353309	0	0
-68.391264975542342	15.219555678309266	0	0
-58.732006712651653	12.631365227284055	0	0
-57.179092442036534	18.426920185018464	0	0
-66.838350704927208	21.015110636043676	0	0
-70	-2.9999999999999916	0	0
-60	-2.9999999999999925	0	0
-60	3.0000000000000075	0	0
-70	3.0000000000000084	0	0
-66.838350704927223	-21.01511063604363	0	0
-57.179092442036549	-18.426920185018425	0	0
-58.732006712651668	-12.631365227284016	0	0
-68.391264975542356	-15.21955567830922	0	0
-59.121778264910702	-37.598076211353323	0	0
-50.461524227066313	-32.598076211353323	0	0
-53.461524227066313	-27.401923788646691	0	0
-62.121778264910702	-32.401923788646691	0	0
-47.37615433949869	-51.618795026617967	0	0
-40.305086527633215	-44.547727214752491	0	0
-44.547727214752506	-40.3050865276332	0	0
-51.618795026617981	-47.376154339498676	0	0
-32.401923788646712	-62.121778264910688	0	0
-27.401923788646712	-53.461524227066306	0	0
-32.598076211353344	-50.461524227066306	0	0
-37.598076211353344	-59.121778264910688	0	0
-15.219555678309238	-68.391264975542342	0	0
-12.631365227284032	-58.732006712651661	0	0
-18.426920185018442	-57.179092442036541	0	0
-21.015110636043648	-66.838350704927208	0	0
2.9999999999999871	-70	0	0
2.9999999999999889	-60	0	0
-3.0000000000000111	-60	0	0
-3.0000000000000129	-70	0	0
21.015110636043683	-66.838350704927208	0	0
18.426920185018471	-57.179092442036527	0	0
12.631365227284062	-58.732006712651661	0	0
15.219555678309273	-68.391264975542342	0	0
37.598076211353323	-59.121778264910702	0	0
32.598076211353323	-50.461524227066313	0	0
27.401923788646691	-53.461524227066313	0	0
32.401923788646691	-62.121778264910702	0	0
51.61879502661796	-47.376154339498697	0	0
44.547727214752484	-40.305086527633222	0	0
40.305086527633193	-44.547727214752499	0	0
47.376154339498669	-51.618795026617974	0	0
62.121778264910688	-32.401923788646712	0	0
53.461524227066306	-27.401923788646712	0	0
50.461524227066306	-32.598076211353344	0	0
59.121778264910688	-37.598076211353344	0	0
68.391264975542342	-15.219555678309241	0	0
58.732006712651661	-12.631365227284036	0	0
57.179092442036541	-18.426920185018446	0	0
66.838350704927208	-21.015110636043651	0	0
-72	0	0	0
-79.166465863162315	20	0	0
-110	20	0	0
-62.353829072479584	36	0	0
-72.353829072479584	36	0	0
-107	23	0	0
-79	23	0	0
-79	35	0	0
-107	35	0	0
-79.166465863162315	-20	0	0
-62.353829072479584	-36	0	0
-72.353829072479584	-36	0	0
-107	-23	0	0
-79	-23	0	0
-79	-35	0	0
-107	-35	0	0
20	79.166465863162315	0	0
20	110	0	0
36	62.353829072479584	0	0
36	72.353829072479584	0	0
23	107	0	0
23	79	0	0
35	79	0	0
35.000000000000007	107	0	0
-20	79.166465863162301	0	0
-20	110	0	0
-36	62.353829072479584	0	0
-36	72.353829072479584	0	0
-23	107	0	0
-23	79	0	0
-35	79	0	0
-35	107	0	0
0	72	0	0
20	-79.166465863162301	0	0
20	-110	0	0
35.999999999999986	-62.353829072479584	0	0
36	-72.353829072479584	0	0
23	-107	0	0
23	-79	0	0
34.999999999999986	-79	0	0
35	-107	0	0
-20	-79.16646586316233	0	0
-20	-110	0	0
-36	-62.353829072479584	0	0
-36	-72.353829072479584	0	0
-23	-107	0	0
-23	-79	0	0
-35	-79	0	0
-35	-107	0	0
0	-72	0	0
130	0	0	0
-130	0	0	0
0	130	0	0
0	-130	0	0
-104.28326807307106	35	0	0
-107	25.514701644346147	0	0
20	108.16653826391968	0	0
35.000000000000007	104.28326807307104	0	0
25.514701644346147	107	0	0
-20	108.16653826391968	0	0
-35	104.28326807307106	0	0
-25.514701644346147	107	0	0
-104.28326807307106	-35	0	0
-107	-25.514701644346147	0	0
20	-108.16653826391968	0	0
35	-104.28326807307106	0	0
25.514701644346147	-107	0	0
-20	-108.16653826391968	0	0
-35	-104.28326807307106	0	0
-25.514701644346147	-107	0	0
-110	-20	0	0
-108.16653826391968	20	0	0
-108.16653826391968	-20	0	0
79.16646586316233	20	0	0
108.16653826391968	20	0	0
62.353829072479584	36	0	0
72.353829072479584	36	0	0
107	23	0	0
79	23	0	0
79	35	0	0
104.28326807307104	35	0	0
107	25.514701644346133	0	0
79.166465863162273	-20.000000000000014	0	0
108.16653826391968	-20	0	0
62.353829072479584	-35.999999999999986	0	0
72.353829072479584	-36	0	0
107	-23	0	0
79	-23	0	0
79	-34.999999999999986	0	0
104.28326807307104	-35	0	0
107	-25.514701644346147	0	0
110	20	0	0
107	35	0	0
110	-20	0	0
107	-35	0	0
72	0	0	0
250	0	0	0
-250	0	0	0
[NumSegments] = 144
3	5	-1	0	0	0
5	6	-1	0	0	0
6	4	-1	0	0	0
7	8	-1	0	0	0
8	9	-1	0	0	0
9	10	-1	0	0	0
11	12	-1	0	0	0
12	13	-1	0	0	0
13	14	-1	0	0	0
15	16	-1	0	0	0
16	17	-1	0	0	0
17	18	-1	0	0	0
19	20	-1	0	0	0
20	21	-1	0	0	0
21	22	-1	0	0	0
23	24	-1	0	0	0
24	25	-1	0	0	0
25	26	-1	0	0	0
27	28	-1	0	0	0
28	29	-1	0	0	0
29	30	-1	0	0	0
31	32	-1	0	0	0
32	33	-1	0	0	0
33	34	-1	0	0	0
35	36	-1	0	0	0
36	37	-1	0	0	0
37	38	-1	0	0	0
39	40	-1	0	0	0
40	41	-1	0	0	0
41	42	-1	0	0	0
43	44	-1	0	0	0
44	45	-1	0	0	0
45	46	-1	0	0	0
47	48	-1	0	0	0
48	49	-1	0	0	0
49	50	-1	0	0	0
51	52	-1	0	0	0
52	53	-1	0	0	0
53	54	-1	0	0	0
55	56	-1	0	0	0
56	57	-1	0	0	0
57	58	-1	0	0	0
59	60	-1	0	0	0
60	61	-1	0	0	0
61	62	-1	0	0	0
63	64	-1	0	0	0
64	65	-1	0	0	0
65	66	-1	0	0	0
67	68	-1	0	0	0
68	69	-1	0	0	0
69	70	-1	0	0	0
71	72	-1	0	0	0
72	73	-1	0	0	0
73	74	-1	0	0	0
75	76	-1	0	0	0
76	77	-1	0	0	0
77	78	-1	0	0	0
79	80	-1	0	0	0
80	81	-1	0	0	0
81	82	-1	0	0	0
83	84	-1	0	0	0
84	85	-1	0	0	0
85	86	-1	0	0	0
87	88	-1	0	0	0
88	89	-1	0	0	0
89	90	-1	0	0	0
91	92	-1	0	0	0
92	93	-1	0	0	0
93	94	-1	0	0	0
95	96	-1	0	0	0
96	97	-1	0	0	0
97	98	-1	0	0	0
102	103	-1	0	0	0
104	105	-1	0	0	0
106	153	-1	0	0	0
104	154	-1	0	0	0
105	106	-1	0	0	0
109	110	-1	0	0	0
111	112	-1	0	0	0
113	161	-1	0	0	0
111	162	-1	0	0	0
112	113	-1	0	0	0
115	155	-1	0	0	0
117	118	-1	0	0	0
119	120	-1	0	0	0
121	156	-1	0	0	0
119	157	-1	0	0	0
120	121	-1	0	0	0
123	158	-1	0	0	0
125	126	-1	0	0	0
127	128	-1	0	0	0
129	159	-1	0	0	0
127	160	-1	0	0	0
128	129	-1	0	0	0
132	163	-1	0	0	0
134	135	-1	0	0	0
136	137	-1	0	0	0
138	164	-1	0	0	0
136	165	-1	0	0	0
137	138	-1	0	0	0
140	166	-1	0	0	0
142	143	-1	0	0	0
144	145	-1	0	0	0
146	167	-1	0	0	0
144	168	-1	0	0	0
145	146	-1	0	0	0
153	107	-1	0	0	0
154	107	-1	0	0	0
155	116	-1	0	0	0
156	122	-1	0	0	0
157	122	-1	0	0	0
158	124	-1	0	0	0
159	130	-1	0	0	0
160	130	-1	0	0	0
161	114	-1	0	0	0
162	114	-1	0	0	0
163	133	-1	0	0	0
164	139	-1	0	0	0
165	139	-1	0	0	0
166	141	-1	0	0	0
167	147	-1	0	0	0
168	147	-1	0	0	0
108	171	-1	0	0	0
171	169	-1	0	0	0
101	170	-1	0	0	0
170	100	-1	0	0	0
172	173	-1	0	0	0
174	175	-1	0	0	0
176	177	-1	0	0	0
178	179	-1	0	0	0
176	180	-1	0	0	0
177	178	-1	0	0	0
181	182	-1	0	0	0
183	184	-1	0	0	0
185	186	-1	0	0	0
187	188	-1	0	0	0
185	189	-1	0	0	0
186	187	-1	0	0	0
173	190	-1	0	0	0
179	191	-1	0	0	0
180	191	-1	0	0	0
182	192	-1	0	0	0
188	193	-1	0	0	0
189	193	-1	0	0	0
[NumArcSegments] = 76
1	2	180	5	0	0	0
2	1	180	5	0	0	0
3	10	10.091936650945849	5	0	0	0
10	7	4.9080633490541521	5	0	0	0
7	14	10.091936650945835	5	0	0	0
14	11	4.9080633490541477	5	0	0	0
11	18	10.091936650945842	5	0	0	0
18	15	4.9080633490541548	5	0	0	0
15	22	10.091936650945842	5	0	0	0
22	19	4.9080633490541512	5	0	0	0
19	26	10.091936650945851	5	0	0	0
26	23	4.908063349054153	5	0	0	0
23	30	10.091936650945838	5	0	0	0
30	27	4.9080633490541485	5	0	0	0
27	34	10.091936650945854	5	0	0	0
34	31	4.9080633490541494	5	0	0	0
31	38	10.091936650945822	5	0	0	0
38	35	4.9080633490541512	5	0	0	0
35	42	10.091936650945843	5	0	0	0
42	39	4.9080633490541477	5	0	0	0
39	46	10.091936650945856	5	0	0	0
46	43	4.9080633490541485	5	0	0	0
43	50	10.09193665094582	5	0	0	0
50	47	4.9080633490541494	5	0	0	0
47	54	10.091936650945852	5	0	0	0
54	51	4.9080633490541485	5	0	0	0
51	58	10.091936650945831	5	0	0	0
58	55	4.9080633490541521	5	0	0	0
55	62	10.091936650945877	5	0	0	0
62	59	4.9080633490541494	5	0	0	0
59	66	10.091936650945835	5	0	0	0
66	63	4.9080633490541619	5	0	0	0
63	70	10.091936650945835	5	0	0	0
70	67	4.9080633490541548	5	0	0	0
67	74	10.091936650945893	5	0	0	0
74	71	4.9080633490541556	5	0	0	0
71	78	10.091936650945836	5	0	0	0
78	75	4.9080633490541548	5	0	0	0
75	82	10.091936650945884	5	0	0	0
82	79	4.9080633490541548	5	0	0	0
79	86	10.091936650945843	5	0	0	0
86	83	4.9080633490541548	5	0	0	0
83	90	10.09193665094584	5	0	0	0
90	87	4.9080633490541512	5	0	0	0
87	94	10.091936650945845	5	0	0	0
94	91	4.9080633490541521	5	0	0	0
91	98	10.091936650945886	5	0	0	0
98	95	4.9080633490541601	5	0	0	0
95	4	10.091936650945852	5	0	0	0
4	3	4.9080633490541512	5	0	0	0
102	99	30.000000000000004	5	0	0	0
103	100	13.87237978683924	5	0	0	0
99	109	30.000000000000004	5	0	0	0
108	110	13.87237978683924	5	0	0	0
117	131	30.000000000000004	5	0	0	0
118	115	13.87237978683924	5	0	0	0
131	125	30.000000000000004	5	0	0	0
123	126	13.87237978683924	5	0	0	0
148	134	30.000000000000004	5	0	0	0
132	135	13.87237978683924	5	0	0	0
142	148	30.000000000000004	5	0	0	0
143	140	13.87237978683924	5	0	0	0
150	152	90	5	0	0	0
152	149	90	5	0	0	0
149	151	90	5	0	0	0
151	150	90	5	0	0	0
194	174	30.000000000000004	5	0	0	0
172	175	13.87237978683924	5	0	0	0
183	194	30.000000000000004	5	0	0	0
184	181	13.87237978683924	5	0	0	0
190	116	90	5	0	0	0
124	101	90	5	0	0	0
169	141	90	5	0	0	0
133	192	90	5	0	0	0
195	196	180	5	1	0	0
196	195	180	5	1	0	0
[NumHoles] = 0
[NumBlockLabels] = 40
-23	120	2	3	0	0	0	1	0
-98	30	3	-1	1	0	0	900	0
93	29	3	-1	1	0	0	900	0
-98	-29	3	-1	1	0	0	-900	0
88	-29	2	-1	1	0	0	-900	0
-30	94	3	-1	1	0	0	900	0
27	93	3	-1	1	0	0	900	0
-31	-92	3	-1	1	0	0	900	0
27	-91	3	-1	1	0	0	900	0
-78	-67	1	-1	0	0	0	1	0
64	-67	1	-1	0	0	0	1	0
66	69	1	-1	0	0	0	1	0
-72	72	1	-1	0	0	0	1	0
-46	138	1	-1	0	0	0	1	0
-39	26	2	3	0	0	0	1	0
-18	62	3	-1	2	0	0	10	0
-33.433445669559518	55.228658418076861	3	-1	2	0	0	10	0
-46.588457268119896	44.693575034635202	3	-1	2	0	0	10	0
-56.568542494923804	31.112698372208097	3	-1	2	0	0	10	0
-62.693575034635195	15.411542731880113	3	-1	2	0	0	10	0
-64.546144041767604	-1.3398840768469427	3	-1	2	0	0	10	0
-62	-17.999999999999996	3	-1	2	0	0	10	0
-55.228658418076861	-33.433445669559518	3	-1	2	0	0	10	0
-44.693575034635202	-46.588457268119882	3	-1	2	0	0	10	0
-31.112698372208097	-56.568542494923804	3	-1	2	0	0	10	0
-15.4115427318801	-62.693575034635202	3	-1	2	0	0	10	0
16	-64	3	-1	2	0	0	-10	0
32.019232107186419	-57.67814816086004	3	-1	2	0	0	-10	0
45.856406460551014	-47.425625842204077	3	-1	2	0	0	-10	0
56.568542494923797	-33.941125496954285	3	-1	2	0	0	-10	0
63.42562584220407	-18.14359353944899	3	-1	2	0	0	-10	0
65.960357604140711	-1.1096056659362343	3	-1	2	0	0	-10	0
64	15.999999999999996	3	-1	2	0	0	-10	0
57.67814816086004	32.019232107186426	3	-1	2	0	0	-10	0
47.425625842204084	45.856406460551007	3	-1	2	0	0	-10	0
33.941125496954285	56.568542494923797	3	-1	2	0	0	-10	0
18.143593539448979	63.425625842204077	3	-1	2	0	0	-10	0
-1	-64.700000000000003	3	-1	0	0	0	1	0
-0.5	65.200000000000003	3	-1	0	0	0	1	0
-6	7	1	-1	0	0	0	1	0
